
Circuit: * FILE: test_inv.sp

Doing analysis at TEMP = 378.150000 and TNOM = 300.150000

Initial Transient Solution
--------------------------

Node                                   Voltage
----                                   -------
gnd                                          0
vdd                                        2.5
uc_net_2                                     0
net_1                                        0
uc_net_3                                   2.5
v:counter:_2#branch                          0
v:counter:_1#branch                          0
vdd#branch                        -1.04053e-09
vgnd#branch                        6.10511e-10

CPU time since last call: 0.044 seconds.

Total CPU time: 0.044 seconds.

Current dynamic memory usage = 135168,
Dynamic memory limit = -135169.

