
Circuit: * FILE: test_xor2.sp

Doing analysis at TEMP = 378.150000 and TNOM = 300.150000

Initial Transient Solution
--------------------------

Node                                   Voltage
----                                   -------
gnd                                          0
vdd                                        2.5
xor2:net_1                             2.49999
net_2                                        0
net_1                                        0
xor2:nor:net_1                             2.5
uc_net_3                           4.60333e-07
xor2:net_2                                 2.5
xor2:net_3                         2.23821e-07
v:counter:_2#branch                          0
v:counter:_1#branch                          0
vdd#branch                        -4.14692e-09
vgnd#branch                        1.58186e-09

CPU time since last call: 0.144 seconds.

Total CPU time: 0.144 seconds.

Current dynamic memory usage = 135168,
Dynamic memory limit = -135041.

