
Circuit: * FILE: test_nand.sp

Doing analysis at TEMP = 378.150000 and TNOM = 300.150000

Initial Transient Solution
--------------------------

Node                                   Voltage
----                                   -------
gnd                                          0
vdd                                        2.5
uc_net_1                                   2.5
net_2                                        0
net_3                                        0
nand:net_1                           0.0586426
v:counter:_2#branch                          0
v:counter:_1#branch                          0
vdd#branch                        -1.24411e-09
vgnd#branch                        3.84842e-10

CPU time since last call: 0.076 seconds.

Total CPU time: 0.076 seconds.

Current dynamic memory usage = 135168,
Dynamic memory limit = -135169.

