
Circuit: * FILE: Carry_test.sp

Doing analysis at TEMP = 378.150000 and TNOM = 300.150000

Initial Transient Solution
--------------------------

Node                                   Voltage
----                                   -------
gnd                                          0
vdd                                        2.5
ci_1                                       2.5
net_3                                        0
p                                          2.5
net_2                                        0
carry:net_1                        2.48164e-07
net_1                                      2.5
notci_1                              0.0243393
notci                                0.0243393
net_4                                      2.5
vclk#branch                                  0
vnotci_1#branch                              0
vnotp#branch                       1.15265e-10
vnotg#branch                      -2.06809e-25
vdd#branch                         -2.7205e-09
vgnd#branch                        1.64342e-09

CPU time since last call: 10.224 seconds.

Total CPU time: 10.224 seconds.

Current dynamic memory usage = 135168,
Dynamic memory limit = -135169.

